Circuit: *** SPICE deck for cell 2x2_MULTIPLIER{lay} from library MOSIS_SUBM_PADS_C5

Ignoring BSIM parameter XL
Ignoring BSIM parameter XW
Ignoring BSIM parameter XL
Ignoring BSIM parameter XW
.dc: Increment so large that there's only one step.
.dc: Increment so large that there's only one step.
.dc: Increment so large that there's only one step.
.step va1=5 vb0=5

Date: Tue Dec 12 22:05:24 2023
Total elapsed time: 0.297 seconds.

tnom = 27
temp = 27
method = trap
totiter = 33
traniter = 0
tranpoints = 0
accept = 0
rejected = 0
matrix size = 40
fillins = 20
solver = Normal

