Circuit: *** SPICE deck for cell 4_BIT_ADDER{lay} from library MOSIS_SUBM_PADS_C5

Ignoring BSIM parameter XL
Ignoring BSIM parameter XW
Ignoring BSIM parameter XL
Ignoring BSIM parameter XW
.dc: Increment so large that there's only one step.
.dc: Increment so large that there's only one step.
.dc: Increment so large that there's only one step.
.step va1=0 va2=0

Date: Tue Dec 12 23:23:33 2023
Total elapsed time: 0.234 seconds.

tnom = 27
temp = 27
method = trap
totiter = 32
traniter = 0
tranpoints = 0
accept = 0
rejected = 0
matrix size = 102
fillins = 58
solver = Normal

