Circuit: *** SPICE deck for cell 4x4_MULTIPLIER{lay} from library MOSIS_SUBM_PADS_C5

Vgnd: both pins shorted together -- ignoring.
Ignoring BSIM parameter XL
Ignoring BSIM parameter XW
Ignoring BSIM parameter XL
Ignoring BSIM parameter XW
.dc: Increment so large that there's only one step.
Early termination of direct N-R iteration.
Direct Newton iteration failed to find .op point.  (Use ".option noopiter" to skip.)
Starting Gmin stepping
Gmin = 10
Gmin = 1.07374
Gmin = 0.115292
Gmin = 0.0123794
Gmin = 0.00132923
Gmin = 0.000142725
Gmin = 1.5325e-005
Gmin = 1.6455e-006
Gmin = 1.76685e-007
Gmin = 1.89714e-008
Gmin = 2.03704e-009
Gmin = 2.18725e-010
Gmin = 2.34854e-011
Gmin = 2.52173e-012
Gmin = 2.70769e-013
Gmin = 0
Gmin stepping succeeded in finding the operating point.


Date: Thu Dec 14 17:34:42 2023
Total elapsed time: 2.140 seconds.

tnom = 27
temp = 27
method = trap
totiter = 458
traniter = 0
tranpoints = 0
accept = 0
rejected = 0
matrix size = 474
fillins = 924
solver = Normal

