Circuit: *** SPICE deck for cell FULL_ADDER{lay} from library MOSIS_SUBM_PADS_C5

Ignoring BSIM parameter XL
Ignoring BSIM parameter XW
Ignoring BSIM parameter XL
Ignoring BSIM parameter XW
.dc: Increment so large that there's only one step.
.dc: Increment so large that there's only one step.
.dc: Increment so large that there's only one step.
.step vb=5 vc=5

Date: Tue Dec 12 20:59:47 2023
Total elapsed time: 0.356 seconds.

tnom = 27
temp = 27
method = trap
totiter = 35
traniter = 0
tranpoints = 0
accept = 0
rejected = 0
matrix size = 29
fillins = 6
solver = Normal

