Circuit: *** SPICE deck for cell HALF_ADDER{lay} from library MOSIS_SUBM_PADS_C5

Ignoring BSIM parameter XL
Ignoring BSIM parameter XW
Ignoring BSIM parameter XL
Ignoring BSIM parameter XW
.dc: Increment so large that there's only one step.
.dc: Increment so large that there's only one step.
.step vb=5

Date: Tue Dec 12 20:33:05 2023
Total elapsed time: 0.172 seconds.

tnom = 27
temp = 27
method = trap
totiter = 20
traniter = 0
tranpoints = 0
accept = 0
rejected = 0
matrix size = 15
fillins = 2
solver = Normal
Matrix Compiler1: 1.21 KB object code size
Matrix Compiler2: 1.69 KB object code size
