Circuit: *** SPICE deck for cell NMOS{lay} from library MOSIS_SUBM_PADS_C5

Ignoring BSIM parameter XL
Ignoring BSIM parameter XW
.OP point found by inspection.
.step vg=0
.step vg=0.5
.step vg=1
.step vg=1.5
.step vg=2
.step vg=2.5
.step vg=3
.step vg=3.5
.step vg=4
.step vg=4.5
.step vg=5

Date: Tue Dec 12 14:57:11 2023
Total elapsed time: 0.343 seconds.

tnom = 27
temp = 27
method = trap
totiter = 22049
traniter = 0
tranpoints = 0
accept = 0
rejected = 0
matrix size = 6
fillins = 0
solver = Normal
Matrix Compiler1: 236 bytes object code size  0.1/0.1/[0.1]
Matrix Compiler2: 364 bytes object code size  0.1/0.2/[0.1]

