Circuit: *** SPICE deck for cell OR_GATE{lay} from library MOSIS_SUBM_PADS_C5

Ignoring BSIM parameter XL
Ignoring BSIM parameter XW
Ignoring BSIM parameter XL
Ignoring BSIM parameter XW
.dc: Increment so large that there's only one step.
.dc: Increment so large that there's only one step.
.dc: Increment so large that there's only one step.
.step va=0 vb=0

Date: Tue Dec 12 20:16:18 2023
Total elapsed time: 0.079 seconds.

tnom = 27
temp = 27
method = trap
totiter = 13
traniter = 0
tranpoints = 0
accept = 0
rejected = 0
matrix size = 9
fillins = 0
solver = Normal
Matrix Compiler1: 368 bytes object code size
Matrix Compiler2: 787 bytes object code size
