Circuit: *** SPICE deck for cell XOR_GATE_trans{lay} from library MOSIS_SUBM_PADS_C5

Vgnd: both pins shorted together -- ignoring.
Ignoring BSIM parameter XL
Ignoring BSIM parameter XW
Ignoring BSIM parameter XL
Ignoring BSIM parameter XW
.dc: Increment so large that there's only one step.
.dc: Increment so large that there's only one step.
.dc: Increment so large that there's only one step.
.step vb=0 vdd=5

Date: Tue Dec 12 16:35:07 2023
Total elapsed time: 0.047 seconds.

tnom = 27
temp = 27
method = trap
totiter = 13
traniter = 0
tranpoints = 0
accept = 0
rejected = 0
matrix size = 8
fillins = 0
solver = Normal
Matrix Compiler1: 390 bytes object code size
Matrix Compiler2: 686 bytes object code size
